M0001
  Spartan 05232412033D

 48 50  0  0  0  0  0  0  0  0999 V2000
    1.6102    1.9304    1.9820 H   0  0  0  0  0  0  0  0  0  0  0  0
    2.4465    2.2832    1.3838 C   0  0  0  0  0  0  0  0  0  0  0  0
    4.6196    3.1877   -0.1347 C   0  0  0  0  0  0  0  0  0  0  0  0
    3.6676    2.5661    1.9971 C   0  0  0  0  0  0  0  0  0  0  0  0
    2.3189    2.4628    0.0049 C   0  0  0  0  0  0  0  0  0  0  0  0
    3.3995    2.9088   -0.7595 C   0  0  0  0  0  0  0  0  0  0  0  0
    4.7578    3.0186    1.2454 C   0  0  0  0  0  0  0  0  0  0  0  0
    3.7763    2.4308    3.0713 H   0  0  0  0  0  0  0  0  0  0  0  0
    3.3060    3.0397   -1.8357 H   0  0  0  0  0  0  0  0  0  0  0  0
    5.4422    3.5327   -0.7532 H   0  0  0  0  0  0  0  0  0  0  0  0
    5.8896    3.2576    1.9745 O   0  0  0  0  0  0  0  0  0  0  0  0
    7.0413    3.6855    1.2578 C   0  0  0  0  0  0  0  0  0  0  0  0
    7.3579    2.9297    0.5315 H   0  0  0  0  0  0  0  0  0  0  0  0
    7.8542    3.8158    1.9787 H   0  0  0  0  0  0  0  0  0  0  0  0
    6.8674    4.6519    0.7735 H   0  0  0  0  0  0  0  0  0  0  0  0
    0.7616    2.1142   -0.7727 S   0  0  0  0  0  0  0  0  0  0  0  0
    0.3992    0.7713   -0.3710 O   0  0  0  0  0  0  0  0  0  0  0  0
    0.8411    2.5025   -2.1628 O   0  0  0  0  0  0  0  0  0  0  0  0
   -0.3191    3.1894   -0.0101 N   0  0  0  0  0  0  0  0  0  0  0  0
   -0.8520    5.4998    0.7885 C   0  0  0  0  0  0  0  0  0  0  0  0
   -2.6828    3.8992    0.4037 C   0  0  0  0  0  0  0  0  0  0  0  0
   -2.2756    5.3468    0.3484 N   0  0  0  0  0  0  0  0  0  0  0  0
   -1.7560    3.0518   -0.4967 C   0  0  0  0  0  0  0  0  0  0  0  0
    0.0730    4.6438   -0.0925 C   0  0  0  0  0  0  0  0  0  0  0  0
   -0.7559    5.1976    1.8382 H   0  0  0  0  0  0  0  0  0  0  0  0
   -2.6411    3.5507    1.4425 H   0  0  0  0  0  0  0  0  0  0  0  0
   -1.7825    3.4817   -1.5101 H   0  0  0  0  0  0  0  0  0  0  0  0
    0.0221    4.9828   -1.1341 H   0  0  0  0  0  0  0  0  0  0  0  0
   -0.5434    6.5459    0.6933 H   0  0  0  0  0  0  0  0  0  0  0  0
   -3.7162    3.8041    0.0520 H   0  0  0  0  0  0  0  0  0  0  0  0
    1.0952    4.7844    0.2681 H   0  0  0  0  0  0  0  0  0  0  0  0
   -3.3362    6.4131    1.1566 S   0  0  0  0  0  0  0  0  0  0  0  0
   -4.9398    6.2886    0.3089 C   0  0  0  0  0  0  0  0  0  0  0  0
   -5.5846    5.4741    0.6019 H   0  0  0  0  0  0  0  0  0  0  0  0
   -4.8991    6.7134   -1.1360 C   0  0  0  0  0  0  0  0  0  0  0  0
   -3.9624    7.0575   -1.5619 H   0  0  0  0  0  0  0  0  0  0  0  0
   -5.5330    6.1839   -1.8375 H   0  0  0  0  0  0  0  0  0  0  0  0
   -5.5626    7.5925   -0.1100 C   0  0  0  0  0  0  0  0  0  0  0  0
   -5.0783    8.5274    0.1500 H   0  0  0  0  0  0  0  0  0  0  0  0
   -6.6449    7.6545   -0.1171 H   0  0  0  0  0  0  0  0  0  0  0  0
   -3.5434    5.8833    2.4863 O   0  0  0  0  0  0  0  0  0  0  0  0
   -2.8217    7.7512    0.9578 O   0  0  0  0  0  0  0  0  0  0  0  0
   -2.3887    1.6733   -0.6211 C   0  0  0  0  0  0  0  0  0  0  0  0
   -2.9853    1.3442   -1.6504 O   0  0  0  0  0  0  0  0  0  0  0  0
   -2.3872    0.8284    0.4430 N   0  0  0  0  0  0  0  0  0  0  0  0
   -2.8205   -0.0864    0.3635 H   0  0  0  0  0  0  0  0  0  0  0  0
   -1.6153    1.0895    1.5831 O   0  0  0  0  0  0  0  0  0  0  0  0
   -0.7436    0.7337    1.2987 H   0  0  0  0  0  0  0  0  0  0  0  0
  1  2  1  0  0  0  0
  2  5  2  0  0  0  0
  5  6  1  0  0  0  0
  3  6  2  0  0  0  0
  3  7  1  0  0  0  0
  4  7  2  0  0  0  0
  2  4  1  0  0  0  0
  6  9  1  0  0  0  0
  3 10  1  0  0  0  0
  4  8  1  0  0  0  0
  7 11  1  0  0  0  0
 12 13  1  0  0  0  0
 12 14  1  0  0  0  0
 12 15  1  0  0  0  0
 11 12  1  0  0  0  0
  5 16  1  0  0  0  0
 16 17  2  0  0  0  0
 16 18  2  0  0  0  0
 19 23  1  0  0  0  0
 19 24  1  0  0  0  0
 20 25  1  0  0  0  0
 20 29  1  0  0  0  0
 20 22  1  0  0  0  0
 20 24  1  0  0  0  0
 21 26  1  0  0  0  0
 21 30  1  0  0  0  0
 21 23  1  0  0  0  0
 21 22  1  0  0  0  0
 23 27  1  0  0  0  0
 24 28  1  0  0  0  0
 24 31  1  0  0  0  0
 16 19  1  0  0  0  0
 22 32  1  0  0  0  0
 33 34  1  0  0  0  0
 32 33  1  0  0  0  0
 35 36  1  0  0  0  0
 35 37  1  0  0  0  0
 33 35  1  0  0  0  0
 38 39  1  0  0  0  0
 38 40  1  0  0  0  0
 33 38  1  0  0  0  0
 35 38  1  0  0  0  0
 32 41  2  0  0  0  0
 32 42  2  0  0  0  0
 23 43  1  0  0  0  0
 43 44  2  0  0  0  0
 45 46  1  0  0  0  0
 43 45  1  0  0  0  0
 47 48  1  0  0  0  0
 45 47  1  0  0  0  0
M  END
$$$$
