M0001
  Spartan 11112416183D

 49 51  0  0  0  0  0  0  0  0999 V2000
    0.4841   -0.7261   -2.6427 H   0  0  0  0  0  0  0  0  0  0  0  0
    0.2675   -0.7107   -1.5636 C   0  0  0  0  0  0  0  0  0  0  0  0
    0.4192    0.9091    0.3811 C   0  0  0  0  0  0  0  0  0  0  0  0
   -1.9168   -0.6152    0.2448 S   0  0  0  0  0  0  0  0  0  0  0  0
   -1.0850    0.9584    0.6388 C   0  0  0  0  0  0  0  0  0  0  0  0
   -1.2818   -0.8592   -1.4780 C   0  0  0  0  0  0  0  0  0  0  0  0
    0.7282    0.6425   -1.0573 N   0  0  0  0  0  0  0  0  0  0  0  0
    0.9046    0.1751    1.0309 H   0  0  0  0  0  0  0  0  0  0  0  0
   -1.5531    1.7625    0.0624 H   0  0  0  0  0  0  0  0  0  0  0  0
    0.8184    1.8888    0.6637 H   0  0  0  0  0  0  0  0  0  0  0  0
   -1.2669    1.1743    1.6967 H   0  0  0  0  0  0  0  0  0  0  0  0
   -1.9660    0.1755   -2.3978 C   0  0  0  0  0  0  0  0  0  0  0  0
   -1.6878    1.2067   -2.1588 H   0  0  0  0  0  0  0  0  0  0  0  0
   -3.0590    0.1033   -2.3470 H   0  0  0  0  0  0  0  0  0  0  0  0
   -1.6822    0.0064   -3.4436 H   0  0  0  0  0  0  0  0  0  0  0  0
   -1.7401   -2.2569   -1.9372 C   0  0  0  0  0  0  0  0  0  0  0  0
   -1.3811   -3.0574   -1.2817 H   0  0  0  0  0  0  0  0  0  0  0  0
   -1.3698   -2.4718   -2.9467 H   0  0  0  0  0  0  0  0  0  0  0  0
   -2.8339   -2.3313   -1.9738 H   0  0  0  0  0  0  0  0  0  0  0  0
    1.0755   -1.8929   -1.0027 C   0  0  0  0  0  0  0  0  0  0  0  0
    1.9508   -2.4639   -1.6565 O   0  0  0  0  0  0  0  0  0  0  0  0
    0.7926   -2.2861    0.2848 N   0  0  0  0  0  0  0  0  0  0  0  0
   -0.1228   -2.1285    0.7024 H   0  0  0  0  0  0  0  0  0  0  0  0
    1.4755   -3.4478    0.7209 O   0  0  0  0  0  0  0  0  0  0  0  0
    2.1045   -3.6141   -0.0170 H   0  0  0  0  0  0  0  0  0  0  0  0
    2.3450    1.0013   -1.5125 S   0  0  0  0  0  0  0  0  0  0  0  0
    2.4930    0.7191   -2.9223 O   0  0  0  0  0  0  0  0  0  0  0  0
    3.2091    0.4206   -0.5094 O   0  0  0  0  0  0  0  0  0  0  0  0
    2.4015    2.7705   -1.3422 C   0  0  0  0  0  0  0  0  0  0  0  0
    2.4710    5.5364   -1.1047 C   0  0  0  0  0  0  0  0  0  0  0  0
    3.2789    3.3604   -0.4276 C   0  0  0  0  0  0  0  0  0  0  0  0
    1.5543    3.5523   -2.1355 C   0  0  0  0  0  0  0  0  0  0  0  0
    1.5829    4.9412   -2.0071 C   0  0  0  0  0  0  0  0  0  0  0  0
    3.3031    4.7501   -0.3041 C   0  0  0  0  0  0  0  0  0  0  0  0
    3.9402    2.7526    0.1862 H   0  0  0  0  0  0  0  0  0  0  0  0
    0.8776    3.0858   -2.8481 H   0  0  0  0  0  0  0  0  0  0  0  0
    0.9149    5.5510   -2.6101 H   0  0  0  0  0  0  0  0  0  0  0  0
    3.9763    5.2218    0.4077 H   0  0  0  0  0  0  0  0  0  0  0  0
    2.5211    6.8980   -0.9102 O   0  0  0  0  0  0  0  0  0  0  0  0
    2.6332    7.6930   -2.0285 C   0  0  0  0  0  0  0  0  0  0  0  0
    2.8101    9.4333   -4.1950 N   0  0  0  0  0  0  0  0  0  0  0  0
    1.8617    8.8490   -2.0571 C   0  0  0  0  0  0  0  0  0  0  0  0
    3.5199    7.4226   -3.0671 C   0  0  0  0  0  0  0  0  0  0  0  0
    3.5651    8.3151   -4.1233 C   0  0  0  0  0  0  0  0  0  0  0  0
    1.9807    9.6784   -3.1575 C   0  0  0  0  0  0  0  0  0  0  0  0
    1.1853    9.0940   -1.2471 H   0  0  0  0  0  0  0  0  0  0  0  0
    4.1641    6.5517   -3.0600 H   0  0  0  0  0  0  0  0  0  0  0  0
    4.2335    8.1535   -4.9644 H   0  0  0  0  0  0  0  0  0  0  0  0
    1.3974   10.5913   -3.2370 H   0  0  0  0  0  0  0  0  0  0  0  0
  1  2  1  0  0  0  0
  2  6  1  0  0  0  0
  2  7  1  0  0  0  0
  3  8  1  0  0  0  0
  3 10  1  0  0  0  0
  3  5  1  0  0  0  0
  3  7  1  0  0  0  0
  4  6  1  0  0  0  0
  4  5  1  0  0  0  0
  5  9  1  0  0  0  0
  5 11  1  0  0  0  0
 12 13  1  0  0  0  0
 12 14  1  0  0  0  0
 12 15  1  0  0  0  0
  6 12  1  0  0  0  0
 16 17  1  0  0  0  0
 16 18  1  0  0  0  0
 16 19  1  0  0  0  0
  6 16  1  0  0  0  0
  2 20  1  0  0  0  0
 20 21  2  0  0  0  0
 22 23  1  0  0  0  0
 20 22  1  0  0  0  0
 24 25  1  0  0  0  0
 22 24  1  0  0  0  0
  7 26  1  0  0  0  0
 26 27  2  0  0  0  0
 26 28  2  0  0  0  0
 29 32  2  0  0  0  0
 32 33  1  0  0  0  0
 30 33  2  0  0  0  0
 30 34  1  0  0  0  0
 31 34  2  0  0  0  0
 29 31  1  0  0  0  0
 33 37  1  0  0  0  0
 34 38  1  0  0  0  0
 31 35  1  0  0  0  0
 32 36  1  0  0  0  0
 26 29  1  0  0  0  0
 30 39  1  0  0  0  0
 40 43  2  0  0  0  0
 43 44  1  0  0  0  0
 41 44  2  0  0  0  0
 41 45  1  0  0  0  0
 42 45  2  0  0  0  0
 40 42  1  0  0  0  0
 44 48  1  0  0  0  0
 45 49  1  0  0  0  0
 42 46  1  0  0  0  0
 43 47  1  0  0  0  0
 39 40  1  0  0  0  0
M  END
$$$$
