M0001
  Spartan 04192409413D

 58 60  0  0  0  0  0  0  0  0999 V2000
   -0.4968    5.9893   -1.6683 H   0  0  0  0  0  0  0  0  0  0  0  0
   -0.4295    6.0671   -0.5785 C   0  0  0  0  0  0  0  0  0  0  0  0
   -0.7298    7.6865    1.3007 N   0  0  0  0  0  0  0  0  0  0  0  0
   -1.4273    5.2929    1.5763 C   0  0  0  0  0  0  0  0  0  0  0  0
   -1.6312    6.7605    1.9833 C   0  0  0  0  0  0  0  0  0  0  0  0
   -1.4017    5.1318    0.0770 N   0  0  0  0  0  0  0  0  0  0  0  0
   -0.6161    7.5284   -0.1496 C   0  0  0  0  0  0  0  0  0  0  0  0
   -2.6501    7.0782    1.7288 H   0  0  0  0  0  0  0  0  0  0  0  0
   -1.5228    7.9564   -0.5897 H   0  0  0  0  0  0  0  0  0  0  0  0
    0.5853    5.7414   -0.3273 H   0  0  0  0  0  0  0  0  0  0  0  0
   -2.2594    4.7043    1.9831 H   0  0  0  0  0  0  0  0  0  0  0  0
   -1.5309    6.8775    3.0679 H   0  0  0  0  0  0  0  0  0  0  0  0
    0.2268    8.1140   -0.5313 H   0  0  0  0  0  0  0  0  0  0  0  0
   -0.1827    4.6911    2.2389 C   0  0  0  0  0  0  0  0  0  0  0  0
    0.8094    4.2852    1.6304 O   0  0  0  0  0  0  0  0  0  0  0  0
   -0.2446    4.6021    3.6167 N   0  0  0  0  0  0  0  0  0  0  0  0
   -1.1251    4.5286    4.1176 H   0  0  0  0  0  0  0  0  0  0  0  0
    0.8457    3.9209    4.2141 O   0  0  0  0  0  0  0  0  0  0  0  0
    1.4238    3.7201    3.4443 H   0  0  0  0  0  0  0  0  0  0  0  0
   -2.9296    4.9848   -0.6371 S   0  0  0  0  0  0  0  0  0  0  0  0
   -3.6963    4.0262    0.1266 O   0  0  0  0  0  0  0  0  0  0  0  0
   -3.4277    6.3196   -0.8814 O   0  0  0  0  0  0  0  0  0  0  0  0
   -2.5669    4.2259   -2.1951 C   0  0  0  0  0  0  0  0  0  0  0  0
   -2.0013    2.9967   -4.6309 C   0  0  0  0  0  0  0  0  0  0  0  0
   -2.9069    4.8714   -3.3855 C   0  0  0  0  0  0  0  0  0  0  0  0
   -1.9398    2.9766   -2.2079 C   0  0  0  0  0  0  0  0  0  0  0  0
   -1.6538    2.3760   -3.4298 C   0  0  0  0  0  0  0  0  0  0  0  0
   -2.6102    4.2505   -4.5948 C   0  0  0  0  0  0  0  0  0  0  0  0
   -3.3959    5.8418   -3.3910 H   0  0  0  0  0  0  0  0  0  0  0  0
   -1.6657    2.4721   -1.2848 H   0  0  0  0  0  0  0  0  0  0  0  0
   -1.7007    2.4558   -5.8578 O   0  0  0  0  0  0  0  0  0  0  0  0
   -2.2043    1.2008   -6.1144 C   0  0  0  0  0  0  0  0  0  0  0  0
   -3.1167   -1.3502   -6.7512 C   0  0  0  0  0  0  0  0  0  0  0  0
   -1.3202    0.2573   -6.6406 C   0  0  0  0  0  0  0  0  0  0  0  0
   -3.5533    0.8810   -5.9346 C   0  0  0  0  0  0  0  0  0  0  0  0
   -4.0078   -0.4022   -6.2477 C   0  0  0  0  0  0  0  0  0  0  0  0
   -1.7757   -1.0250   -6.9524 C   0  0  0  0  0  0  0  0  0  0  0  0
   -0.2768    0.5170   -6.7985 H   0  0  0  0  0  0  0  0  0  0  0  0
   -4.2584    1.6206   -5.5669 H   0  0  0  0  0  0  0  0  0  0  0  0
   -5.0553   -0.6537   -6.1044 H   0  0  0  0  0  0  0  0  0  0  0  0
   -1.0833   -1.7613   -7.3515 H   0  0  0  0  0  0  0  0  0  0  0  0
   -3.6796   -2.9296   -7.1370 Cl  0  0  0  0  0  0  0  0  0  0  0  0
   -1.0203    1.1950   -3.4290 F   0  0  0  0  0  0  0  0  0  0  0  0
   -2.9314    4.8761   -5.7359 F   0  0  0  0  0  0  0  0  0  0  0  0
   -0.4475    8.8912    1.9255 C   0  0  0  0  0  0  0  0  0  0  0  0
   -0.7509    9.1394    3.0858 O   0  0  0  0  0  0  0  0  0  0  0  0
    0.1944    9.7649    1.1066 O   0  0  0  0  0  0  0  0  0  0  0  0
    0.5497   11.0263    1.6935 C   0  0  0  0  0  0  0  0  0  0  0  0
    1.3480   11.4557    1.0775 H   0  0  0  0  0  0  0  0  0  0  0  0
    0.9851   10.8909    2.6915 H   0  0  0  0  0  0  0  0  0  0  0  0
   -0.6395   11.9815    1.7278 C   0  0  0  0  0  0  0  0  0  0  0  0
   -1.0774   12.0640    0.7258 H   0  0  0  0  0  0  0  0  0  0  0  0
   -1.4169   11.6020    2.4002 H   0  0  0  0  0  0  0  0  0  0  0  0
   -0.1991   13.2651    2.1701 O   0  0  0  0  0  0  0  0  0  0  0  0
   -1.2786   14.1859    2.2583 C   0  0  0  0  0  0  0  0  0  0  0  0
   -1.7475   14.3214    1.2789 H   0  0  0  0  0  0  0  0  0  0  0  0
   -0.8833   15.1488    2.5928 H   0  0  0  0  0  0  0  0  0  0  0  0
   -2.0185   13.8400    2.9864 H   0  0  0  0  0  0  0  0  0  0  0  0
  1  2  1  0  0  0  0
  2 10  1  0  0  0  0
  2  6  1  0  0  0  0
  2  7  1  0  0  0  0
  3  5  1  0  0  0  0
  3  7  1  0  0  0  0
  4 11  1  0  0  0  0
  4  6  1  0  0  0  0
  4  5  1  0  0  0  0
  5  8  1  0  0  0  0
  5 12  1  0  0  0  0
  7  9  1  0  0  0  0
  7 13  1  0  0  0  0
  4 14  1  0  0  0  0
 14 15  2  0  0  0  0
 16 17  1  0  0  0  0
 14 16  1  0  0  0  0
 18 19  1  0  0  0  0
 16 18  1  0  0  0  0
  6 20  1  0  0  0  0
 20 21  2  0  0  0  0
 20 22  2  0  0  0  0
 23 26  2  0  0  0  0
 26 27  1  0  0  0  0
 24 27  2  0  0  0  0
 24 28  1  0  0  0  0
 25 28  2  0  0  0  0
 23 25  1  0  0  0  0
 25 29  1  0  0  0  0
 26 30  1  0  0  0  0
 20 23  1  0  0  0  0
 24 31  1  0  0  0  0
 32 35  2  0  0  0  0
 35 36  1  0  0  0  0
 33 36  2  0  0  0  0
 33 37  1  0  0  0  0
 34 37  2  0  0  0  0
 32 34  1  0  0  0  0
 36 40  1  0  0  0  0
 37 41  1  0  0  0  0
 34 38  1  0  0  0  0
 35 39  1  0  0  0  0
 31 32  1  0  0  0  0
 33 42  1  0  0  0  0
 27 43  1  0  0  0  0
 28 44  1  0  0  0  0
  3 45  1  0  0  0  0
 45 46  2  0  0  0  0
 45 47  1  0  0  0  0
 48 49  1  0  0  0  0
 48 50  1  0  0  0  0
 47 48  1  0  0  0  0
 51 52  1  0  0  0  0
 51 53  1  0  0  0  0
 48 51  1  0  0  0  0
 51 54  1  0  0  0  0
 55 56  1  0  0  0  0
 55 57  1  0  0  0  0
 55 58  1  0  0  0  0
 54 55  1  0  0  0  0
M  END
$$$$
